/*--------------------------------*- C++ -*----------------------------------*\
| =========                 |                                                 |
| \\      /  F ield         | OpenFOAM: The Open Source CFD Toolbox           |
|  \\    /   O peration     | Version:  v1906                                 |
|   \\  /    A nd           | Web:      www.OpenFOAM.com                      |
|    \\/     M anipulation  |                                                 |
\*---------------------------------------------------------------------------*/
FoamFile
{
    version     2.0;
    format      ascii;
    class       dictionary;
    object      topoSetDict;
}

// * * * * * * * * * * * * * * * * * * * * * * * * * * * * * * * * * * * * * //

actions
(
    {
        name    cylinder;
        type    faceSet;
        action  new;
        source  patchToFace;
        sourceInfo
	{
	  patch cylinder;
	}

    }

    {
        name    bottom_patch_negative;
        type    faceSet;
        action  new;
        source  boxToFace;
        sourceInfo
        {
          box (-0.6 -0.6 0.01) (0.6 0.6 41);
        }

    }


    {
        name    top_patch_negative;
        type    faceSet;
        action  new;
        source  boxToFace;
        sourceInfo
        {
 	  box (-0.6 -0.6 -1.0) (0.6 0.6 39.99);
        }

    }

);

// ************************************************************************* //
