/*--------------------------------*- C++ -*----------------------------------*\
| =========                 |                                                 |
| \\      /  F ield         | OpenFOAM: The Open Source CFD Toolbox           |
|  \\    /   O peration     | Version:  v1906                                 |
|   \\  /    A nd           | Web:      www.OpenFOAM.com                      |
|    \\/     M anipulation  |                                                 |
\*---------------------------------------------------------------------------*/
FoamFile
{
    version     2.0;
    format      ascii;
    class       polyBoundaryMesh;
    location    "constant/polyMesh";
    object      boundary;
}
// * * * * * * * * * * * * * * * * * * * * * * * * * * * * * * * * * * * * * //

4
(
    topPatch
    {
        type            patch;
        nFaces          1768;
        startFace       124908;
    }
    wall
    {
        type            wall;
        inGroups        1(wall);
        nFaces          11264;
        startFace       126676;
    }
    bottomPatch
    {
        type            patch;
        nFaces          0;
        startFace       137940;
    }
    procBoundary0to1
    {
        type            processor;
        inGroups        1(processor);
        nFaces          220;
        startFace       137940;
        matchTolerance  0.0001;
        transform       unknown;
        myProcNo        0;
        neighbProcNo    1;
    }
)

// ************************************************************************* //
